data_crystal_structure_P1

_symmetry_space_group_name_H-M     'P 1'
_symmetry_Int_Tables_number        1

_cell_length_a                     4.56502
_cell_length_b                     7.06700
_cell_length_c                     7.70631
_cell_angle_alpha                  90.00000
_cell_angle_beta                   90.00000
_cell_angle_gamma                  90.00000
_cell_volume                       248.61311
_cell_formula_units_Z              1

loop_
_space_group_symop_operation_xyz
x,y,z

loop_
_atom_site_label
_atom_site_type_symbol
_atom_site_fract_x
_atom_site_fract_y
_atom_site_fract_z
_atom_site_occupancy
Ag1    Ag    0.02120   0.23457   0.87466   1.00000
Ag2    Ag    0.68484   0.88325   0.94791   1.00000
Ag3    Ag    0.47880   0.76543   0.37466   1.00000
Ag4    Ag    0.18484   0.61675   0.05209   1.00000
Ag5    Ag    0.81516   0.11675   0.44791   1.00000
Ag6    Ag    0.97880   0.73457   0.62534   1.00000
Ag7    Ag    0.31516   0.38325   0.55209   1.00000
Ag8    Ag    0.52120   0.26543   0.12534   1.00000
Se1    Se    0.88099   0.49350   0.33605   1.00000
Se2    Se    0.11901   0.99350   0.16395   1.00000
Se3    Se    0.38099   0.00650   0.66395   1.00000
Se4    Se    0.61901   0.50650   0.83605   1.00000
loop_
_atom_site_aniso_label
_atom_site_aniso_U_11
_atom_site_aniso_U_22
_atom_site_aniso_U_33
_atom_site_aniso_U_23
_atom_site_aniso_U_13
_atom_site_aniso_U_12
   Ag1    0.04638    0.04215    0.08073    0.01147    0.00527    0.01169
   Ag2    0.05061    0.04274    0.05754   -0.00476   -0.01948   -0.00454
   Ag3    0.04638    0.04215    0.08073   -0.01147   -0.00527    0.01169
   Ag4    0.05061    0.04274    0.05754   -0.00476    0.01948    0.00454
   Ag5    0.05061    0.04274    0.05754    0.00476    0.01948   -0.00454
   Ag6    0.04638    0.04215    0.08073   -0.01147    0.00527   -0.01169
   Ag7    0.05061    0.04274    0.05754    0.00476   -0.01948    0.00454
   Ag8    0.04638    0.04215    0.08073    0.01147   -0.00527   -0.01169
   Se1    0.03136    0.02393    0.02822   -0.00028   -0.00134    0.00183
   Se2    0.03136    0.02393    0.02822    0.00028   -0.00134   -0.00183
   Se3    0.03136    0.02393    0.02822   -0.00028    0.00134   -0.00183
   Se4    0.03136    0.02393    0.02822    0.00028    0.00134    0.00183
