data_crystal_structure_P1

_symmetry_space_group_name_H-M     'P 1'
_symmetry_Int_Tables_number        1

_cell_length_a                     8.41389
_cell_length_b                     8.41389
_cell_length_c                     11.58637
_cell_angle_alpha                  90.00000
_cell_angle_beta                   90.00000
_cell_angle_gamma                  115.56759
_cell_volume                       739.91961
_cell_formula_units_Z              1

loop_
_space_group_symop_operation_xyz
x,y,z

loop_
_atom_site_label
_atom_site_type_symbol
_atom_site_fract_x
_atom_site_fract_y
_atom_site_fract_z
_atom_site_occupancy
Na1    Na    0.07475   0.92525   0.25000   1.00000
Na2    Na    0.92525   0.07475   0.75000   1.00000
Na3    Na    0.60493   0.60493   0.50000   1.00000
Na4    Na    0.39507   0.39507   1.00000   1.00000
Na5    Na    0.48993   0.90386   0.67133   1.00000
Na6    Na    0.51007   0.09614   0.17133   1.00000
Na7    Na    0.90386   0.48993   0.32867   1.00000
Na8    Na    0.09614   0.51007   0.82867   1.00000
Na9    Na    0.41325   0.16542   0.45913   1.00000
Na10   Na    0.58675   0.83458   0.95913   1.00000
Na11   Na    0.16542   0.41325   0.54087   1.00000
Na12   Na    0.83458   0.58675   0.04087   1.00000
Na13   Na    0.79419   0.05235   0.41593   1.00000
Na14   Na    0.20581   0.94765   0.91593   1.00000
Na15   Na    0.05235   0.79419   0.58407   1.00000
Na16   Na    0.94765   0.20581   0.08407   1.00000
Tl1    Tl    0.34150   0.77202   0.38507   1.00000
Tl2    Tl    0.65850   0.22798   0.88507   1.00000
Tl3    Tl    0.77202   0.34150   0.61493   1.00000
Tl4    Tl    0.22798   0.65850   0.11493   1.00000
Tl5    Tl    0.72505   0.63535   0.77651   1.00000
Tl6    Tl    0.27495   0.36465   0.27651   1.00000
Tl7    Tl    0.63535   0.72505   0.22349   1.00000
Tl8    Tl    0.36465   0.27495   0.72349   1.00000
loop_
_atom_site_aniso_label
_atom_site_aniso_U_11
_atom_site_aniso_U_22
_atom_site_aniso_U_33
_atom_site_aniso_U_23
_atom_site_aniso_U_13
_atom_site_aniso_U_12
   Na1    0.01719    0.01719    0.03008   -0.00138   -0.00138    0.00759
   Na2    0.01719    0.01719    0.03008    0.00138    0.00138    0.00759
   Na3    0.01947    0.01947    0.02366    0.00282   -0.00282    0.00935
   Na4    0.01947    0.01947    0.02366   -0.00282    0.00282    0.00935
   Na5    0.02126    0.02351    0.02144   -0.00175   -0.00295    0.00739
   Na6    0.02126    0.02351    0.02144    0.00175    0.00295    0.00739
   Na7    0.02351    0.02126    0.02144    0.00295    0.00175    0.00739
   Na8    0.02351    0.02126    0.02144   -0.00295   -0.00175    0.00739
   Na9    0.02849    0.01745    0.02136   -0.00352   -0.00672    0.01174
  Na10    0.02849    0.01745    0.02136    0.00352    0.00672    0.01174
  Na11    0.01745    0.02849    0.02136    0.00672    0.00352    0.01174
  Na12    0.01745    0.02849    0.02136   -0.00672   -0.00352    0.01174
  Na13    0.03045    0.01966    0.02493   -0.00343   -0.00151    0.01086
  Na14    0.03045    0.01966    0.02493    0.00343    0.00151    0.01086
  Na15    0.01966    0.03045    0.02493    0.00151    0.00343    0.01086
  Na16    0.01966    0.03045    0.02493   -0.00151   -0.00343    0.01086
   Tl1    0.01764    0.01413    0.01608   -0.00122    0.00024    0.00834
   Tl2    0.01764    0.01413    0.01608    0.00122   -0.00024    0.00834
   Tl3    0.01413    0.01764    0.01608   -0.00024    0.00122    0.00834
   Tl4    0.01413    0.01764    0.01608    0.00024   -0.00122    0.00834
   Tl5    0.04257    0.01640    0.01590    0.00112    0.00758    0.01442
   Tl6    0.04257    0.01640    0.01590   -0.00112   -0.00758    0.01442
   Tl7    0.01640    0.04257    0.01590   -0.00758   -0.00112    0.01442
   Tl8    0.01640    0.04257    0.01590    0.00758    0.00112    0.01442
