data_crystal_structure_P1

_symmetry_space_group_name_H-M     'P 1'
_symmetry_Int_Tables_number        1

_cell_length_a                     11.14458
_cell_length_b                     8.04190
_cell_length_c                     9.88977
_cell_angle_alpha                  90.00000
_cell_angle_beta                   115.93068
_cell_angle_gamma                  90.00000
_cell_volume                       797.12190
_cell_formula_units_Z              1

loop_
_space_group_symop_operation_xyz
x,y,z

loop_
_atom_site_label
_atom_site_type_symbol
_atom_site_fract_x
_atom_site_fract_y
_atom_site_fract_z
_atom_site_occupancy
Tl1    Tl    0.58397   0.69932   0.91413   1.00000
Tl2    Tl    0.58397   0.80068   0.41413   1.00000
Tl3    Tl    0.79861   0.99932   0.81620   1.00000
Tl4    Tl    0.23654   0.99830   0.78521   1.00000
Tl5    Tl    0.41603   0.30068   0.08587   1.00000
Tl6    Tl    0.23654   0.50170   0.28521   1.00000
Tl7    Tl    0.20139   0.00068   0.18380   1.00000
Tl8    Tl    0.76346   0.00170   0.21479   1.00000
Tl9    Tl    0.20139   0.49932   0.68380   1.00000
Tl10   Tl    0.79861   0.50068   0.31620   1.00000
Tl11   Tl    0.76346   0.49830   0.71479   1.00000
Tl12   Tl    0.41603   0.19932   0.58587   1.00000
Ag1    Ag    0.91323   0.15653   0.58555   1.00000
Ag2    Ag    0.08677   0.84347   0.41445   1.00000
Ag3    Ag    0.91323   0.34347   0.08555   1.00000
Ag4    Ag    0.08677   0.65653   0.91445   1.00000
Te1    Te    0.36816   0.79099   0.56162   1.00000
Te2    Te    0.63184   0.20901   0.43838   1.00000
Te3    Te    0.36816   0.70901   0.06162   1.00000
Te4    Te    0.63184   0.29099   0.93838   1.00000
Te5    Te    0.95752   0.78136   0.61014   1.00000
Te6    Te    0.04248   0.28136   0.88986   1.00000
Te7    Te    0.95752   0.71864   0.11014   1.00000
Te8    Te    0.04248   0.21864   0.38986   1.00000
loop_
_atom_site_aniso_label
_atom_site_aniso_U_11
_atom_site_aniso_U_22
_atom_site_aniso_U_33
_atom_site_aniso_U_23
_atom_site_aniso_U_13
_atom_site_aniso_U_12
   Tl1    0.03109    0.04218    0.03990    0.00121    0.01456   -0.00084
   Tl2    0.03109    0.04218    0.03990   -0.00121    0.01456    0.00084
   Tl3    0.03676    0.03251    0.03656    0.00265    0.01556   -0.00468
   Tl4    0.03561    0.03269    0.03693   -0.00637    0.01565   -0.00582
   Tl5    0.03109    0.04218    0.03990    0.00121    0.01456   -0.00084
   Tl6    0.03561    0.03269    0.03693    0.00637    0.01565    0.00582
   Tl7    0.03676    0.03251    0.03656    0.00265    0.01556   -0.00468
   Tl8    0.03561    0.03269    0.03693   -0.00637    0.01565   -0.00582
   Tl9    0.03676    0.03251    0.03656   -0.00265    0.01556    0.00468
  Tl10    0.03676    0.03251    0.03656   -0.00265    0.01556    0.00468
  Tl11    0.03561    0.03269    0.03693    0.00637    0.01565    0.00582
  Tl12    0.03109    0.04218    0.03990   -0.00121    0.01456    0.00084
   Ag1    0.04026    0.05094    0.02784   -0.00095    0.01592    0.00205
   Ag2    0.04026    0.05094    0.02784   -0.00095    0.01592    0.00205
   Ag3    0.04026    0.05094    0.02784    0.00095    0.01592   -0.00205
   Ag4    0.04026    0.05094    0.02784    0.00095    0.01592   -0.00205
   Te1    0.03183    0.04348    0.03002   -0.00043    0.01408   -0.00090
   Te2    0.03183    0.04348    0.03002   -0.00043    0.01408   -0.00090
   Te3    0.03183    0.04348    0.03002    0.00043    0.01408    0.00090
   Te4    0.03183    0.04348    0.03002    0.00043    0.01408    0.00090
   Te5    0.02688    0.02278    0.02113    0.00070    0.01127   -0.00060
   Te6    0.02688    0.02278    0.02113   -0.00070    0.01127    0.00060
   Te7    0.02688    0.02278    0.02113   -0.00070    0.01127    0.00060
   Te8    0.02688    0.02278    0.02113    0.00070    0.01127   -0.00060
