data_crystal_structure_P1

_symmetry_space_group_name_H-M     'P 1'
_symmetry_Int_Tables_number        1

_cell_length_a                     4.31347
_cell_length_b                     4.31347
_cell_length_c                     25.07851
_cell_angle_alpha                  90.00000
_cell_angle_beta                   90.00000
_cell_angle_gamma                  120.00000
_cell_volume                       404.09786
_cell_formula_units_Z              1

loop_
_space_group_symop_operation_xyz
x,y,z

loop_
_atom_site_label
_atom_site_type_symbol
_atom_site_fract_x
_atom_site_fract_y
_atom_site_fract_z
_atom_site_occupancy
Ge1    Ge    1.00000   0.00000   0.50000   1.00000
Sb1    Sb    0.66667   0.33333   0.92062   1.00000
Sb2    Sb    0.33333   0.66667   0.35213   1.00000
Sb3    Sb    0.33333   0.66667   0.07938   1.00000
Sb4    Sb    0.66667   0.33333   0.64787   1.00000
Te1    Te    0.33333   0.66667   0.85252   1.00000
Te2    Te    0.66667   0.33333   0.14748   1.00000
Te3    Te    1.00000   0.00000   0.71552   1.00000
Te4    Te    0.66667   0.33333   0.43258   1.00000
Te5    Te    0.33333   0.66667   0.56742   1.00000
Te6    Te    1.00000   0.00000   0.00000   1.00000
Te7    Te    1.00000   0.00000   0.28448   1.00000
loop_
_atom_site_aniso_label
_atom_site_aniso_U_11
_atom_site_aniso_U_22
_atom_site_aniso_U_33
_atom_site_aniso_U_23
_atom_site_aniso_U_13
_atom_site_aniso_U_12
   Ge1    0.02284    0.02311    0.02186    0.00014    0.00028    0.01143
   Sb1    0.01645    0.01647    0.02404   -0.00002   -0.00005    0.00825
   Sb2    0.01725    0.01748    0.01963    0.00012    0.00025    0.00864
   Sb3    0.01645    0.01647    0.02404   -0.00002   -0.00005    0.00825
   Sb4    0.01725    0.01748    0.01963    0.00012    0.00025    0.00864
   Te1    0.01759    0.01763    0.02034    0.00000    0.00001    0.00883
   Te2    0.01759    0.01763    0.02034    0.00000    0.00001    0.00883
   Te3    0.01609    0.01624    0.01648    0.00009    0.00018    0.00806
   Te4    0.01334    0.01340    0.01493    0.00009    0.00015    0.00667
   Te5    0.01334    0.01340    0.01493    0.00009    0.00015    0.00667
   Te6    0.01338    0.01341    0.02075   -0.00001   -0.00004    0.00670
   Te7    0.01609    0.01624    0.01648    0.00009    0.00018    0.00806
