data_crystal_structure_P1

_symmetry_space_group_name_H-M     'P 1'
_symmetry_Int_Tables_number        1

_cell_length_a                     7.03776
_cell_length_b                     13.78969
_cell_length_c                     15.98963
_cell_angle_alpha                  90.00000
_cell_angle_beta                   90.13601
_cell_angle_gamma                  90.00000
_cell_volume                       1551.76597
_cell_formula_units_Z              1

loop_
_space_group_symop_operation_xyz
x,y,z

loop_
_atom_site_label
_atom_site_type_symbol
_atom_site_fract_x
_atom_site_fract_y
_atom_site_fract_z
_atom_site_occupancy
Ba1    Ba    0.47492   0.48244   0.25290   1.00000
Ba2    Ba    0.52508   0.98244   0.24710   1.00000
Ba3    Ba    0.52508   0.51756   0.74710   1.00000
Ba4    Ba    0.47492   0.01756   0.75290   1.00000
Ba5    Ba    0.97515   0.23156   0.73939   1.00000
Ba6    Ba    0.02485   0.73156   0.76061   1.00000
Ba7    Ba    0.02485   0.76844   0.26061   1.00000
Ba8    Ba    0.97515   0.26844   0.23939   1.00000
Ba9    Ba    0.74299   0.12718   0.49422   1.00000
Ba10   Ba    0.25701   0.62718   0.00578   1.00000
Ba11   Ba    0.25701   0.87282   0.50578   1.00000
Ba12   Ba    0.74299   0.37282   0.99422   1.00000
Ba13   Ba    0.24542   0.37958   0.49746   1.00000
Ba14   Ba    0.75458   0.87958   0.00254   1.00000
Ba15   Ba    0.75458   0.62042   0.50254   1.00000
Ba16   Ba    0.24542   0.12042   0.99746   1.00000
Sb1    Sb    0.74883   0.38062   0.41707   1.00000
Sb2    Sb    0.25117   0.88062   0.08293   1.00000
Sb3    Sb    0.25117   0.61938   0.58293   1.00000
Sb4    Sb    0.74883   0.11938   0.91707   1.00000
Sb5    Sb    0.00281   0.01407   0.17157   1.00000
Sb6    Sb    0.99719   0.51407   0.32843   1.00000
Sb7    Sb    0.99719   0.98593   0.82843   1.00000
Sb8    Sb    0.00281   0.48593   0.67157   1.00000
Sb9    Sb    0.09600   0.45555   0.84830   1.00000
Sb10   Sb    0.90400   0.95555   0.65170   1.00000
Sb11   Sb    0.90400   0.54445   0.15170   1.00000
Sb12   Sb    0.09600   0.04445   0.34830   1.00000
Sb13   Sb    0.39795   0.20569   0.34381   1.00000
Sb14   Sb    0.60205   0.70569   0.15619   1.00000
Sb15   Sb    0.60205   0.79431   0.65619   1.00000
Sb16   Sb    0.39795   0.29431   0.84381   1.00000
Sb17   Sb    0.24845   0.36787   0.06649   1.00000
Sb18   Sb    0.75155   0.86787   0.43351   1.00000
Sb19   Sb    0.75155   0.63213   0.93351   1.00000
Sb20   Sb    0.24845   0.13213   0.56649   1.00000
Sb21   Sb    0.49147   0.23826   0.16633   1.00000
Sb22   Sb    0.50853   0.73826   0.33367   1.00000
Sb23   Sb    0.50853   0.76174   0.83367   1.00000
Sb24   Sb    0.49147   0.26174   0.66633   1.00000
loop_
_atom_site_aniso_label
_atom_site_aniso_U_11
_atom_site_aniso_U_22
_atom_site_aniso_U_33
_atom_site_aniso_U_23
_atom_site_aniso_U_13
_atom_site_aniso_U_12
   Ba1    0.02090    0.02485    0.02155    0.00304    0.00262   -0.00097
   Ba2    0.02090    0.02485    0.02155   -0.00304    0.00262    0.00097
   Ba3    0.02090    0.02485    0.02155    0.00304    0.00262   -0.00097
   Ba4    0.02090    0.02485    0.02155   -0.00304    0.00262    0.00097
   Ba5    0.02035    0.02244    0.02171    0.00007   -0.00273   -0.00218
   Ba6    0.02035    0.02244    0.02171   -0.00007   -0.00273    0.00218
   Ba7    0.02035    0.02244    0.02171    0.00007   -0.00273   -0.00218
   Ba8    0.02035    0.02244    0.02171   -0.00007   -0.00273    0.00218
   Ba9    0.02136    0.02566    0.01802    0.00083   -0.00038    0.00312
  Ba10    0.02136    0.02566    0.01802   -0.00083   -0.00038   -0.00312
  Ba11    0.02136    0.02566    0.01802    0.00083   -0.00038    0.00312
  Ba12    0.02136    0.02566    0.01802   -0.00083   -0.00038   -0.00312
  Ba13    0.02835    0.02055    0.01833   -0.00047    0.00085    0.00423
  Ba14    0.02835    0.02055    0.01833    0.00047    0.00085   -0.00423
  Ba15    0.02835    0.02055    0.01833   -0.00047    0.00085    0.00423
  Ba16    0.02835    0.02055    0.01833    0.00047    0.00085   -0.00423
   Sb1    0.02701    0.02442    0.03394    0.00230    0.00271    0.00719
   Sb2    0.02701    0.02442    0.03394   -0.00230    0.00271   -0.00719
   Sb3    0.02701    0.02442    0.03394    0.00230    0.00271    0.00719
   Sb4    0.02701    0.02442    0.03394   -0.00230    0.00271   -0.00719
   Sb5    0.02610    0.03024    0.02814   -0.00369    0.00593   -0.00691
   Sb6    0.02610    0.03024    0.02814    0.00369    0.00593    0.00691
   Sb7    0.02610    0.03024    0.02814   -0.00369    0.00593   -0.00691
   Sb8    0.02610    0.03024    0.02814    0.00369    0.00593    0.00691
   Sb9    0.03752    0.03873    0.02441   -0.00678    0.00936   -0.01911
  Sb10    0.03752    0.03873    0.02441    0.00678    0.00936    0.01911
  Sb11    0.03752    0.03873    0.02441   -0.00678    0.00936   -0.01911
  Sb12    0.03752    0.03873    0.02441    0.00678    0.00936    0.01911
  Sb13    0.03788    0.03223    0.03215   -0.01135   -0.01526    0.01651
  Sb14    0.03788    0.03223    0.03215    0.01135   -0.01526   -0.01651
  Sb15    0.03788    0.03223    0.03215   -0.01135   -0.01526    0.01651
  Sb16    0.03788    0.03223    0.03215    0.01135   -0.01526   -0.01651
  Sb17    0.02406    0.02533    0.04643    0.00102   -0.00267   -0.00730
  Sb18    0.02406    0.02533    0.04643   -0.00102   -0.00267    0.00730
  Sb19    0.02406    0.02533    0.04643    0.00102   -0.00267   -0.00730
  Sb20    0.02406    0.02533    0.04643   -0.00102   -0.00267    0.00730
  Sb21    0.03044    0.03551    0.03329    0.00683   -0.01055   -0.01143
  Sb22    0.03044    0.03551    0.03329   -0.00683   -0.01055    0.01143
  Sb23    0.03044    0.03551    0.03329    0.00683   -0.01055   -0.01143
  Sb24    0.03044    0.03551    0.03329   -0.00683   -0.01055    0.01143
