data_crystal_structure_P1

_symmetry_space_group_name_H-M     'P 1'
_symmetry_Int_Tables_number        1

_cell_length_a                     7.03776
_cell_length_b                     13.78969
_cell_length_c                     15.98963
_cell_angle_alpha                  90.00000
_cell_angle_beta                   90.13601
_cell_angle_gamma                  90.00000
_cell_volume                       1551.76597
_cell_formula_units_Z              1

loop_
_space_group_symop_operation_xyz
x,y,z

loop_
_atom_site_label
_atom_site_type_symbol
_atom_site_fract_x
_atom_site_fract_y
_atom_site_fract_z
_atom_site_occupancy
Ba1    Ba    0.47492   0.48244   0.25290   1.00000
Ba2    Ba    0.52508   0.98244   0.24710   1.00000
Ba3    Ba    0.52508   0.51756   0.74710   1.00000
Ba4    Ba    0.47492   0.01756   0.75290   1.00000
Ba5    Ba    0.97515   0.23156   0.73939   1.00000
Ba6    Ba    0.02485   0.73156   0.76061   1.00000
Ba7    Ba    0.02485   0.76844   0.26061   1.00000
Ba8    Ba    0.97515   0.26844   0.23939   1.00000
Ba9    Ba    0.74299   0.12718   0.49422   1.00000
Ba10   Ba    0.25701   0.62718   0.00578   1.00000
Ba11   Ba    0.25701   0.87282   0.50578   1.00000
Ba12   Ba    0.74299   0.37282   0.99422   1.00000
Ba13   Ba    0.24542   0.37958   0.49746   1.00000
Ba14   Ba    0.75458   0.87958   0.00254   1.00000
Ba15   Ba    0.75458   0.62042   0.50254   1.00000
Ba16   Ba    0.24542   0.12042   0.99746   1.00000
Sb1    Sb    0.74883   0.38062   0.41707   1.00000
Sb2    Sb    0.25117   0.88062   0.08293   1.00000
Sb3    Sb    0.25117   0.61938   0.58293   1.00000
Sb4    Sb    0.74883   0.11938   0.91707   1.00000
Sb5    Sb    0.00281   0.01407   0.17157   1.00000
Sb6    Sb    0.99719   0.51407   0.32843   1.00000
Sb7    Sb    0.99719   0.98593   0.82843   1.00000
Sb8    Sb    0.00281   0.48593   0.67157   1.00000
Sb9    Sb    0.09600   0.45555   0.84830   1.00000
Sb10   Sb    0.90400   0.95555   0.65170   1.00000
Sb11   Sb    0.90400   0.54445   0.15170   1.00000
Sb12   Sb    0.09600   0.04445   0.34830   1.00000
Sb13   Sb    0.39795   0.20569   0.34381   1.00000
Sb14   Sb    0.60205   0.70569   0.15619   1.00000
Sb15   Sb    0.60205   0.79431   0.65619   1.00000
Sb16   Sb    0.39795   0.29431   0.84381   1.00000
Sb17   Sb    0.24845   0.36787   0.06649   1.00000
Sb18   Sb    0.75155   0.86787   0.43351   1.00000
Sb19   Sb    0.75155   0.63213   0.93351   1.00000
Sb20   Sb    0.24845   0.13213   0.56649   1.00000
Sb21   Sb    0.49147   0.23826   0.16633   1.00000
Sb22   Sb    0.50853   0.73826   0.33367   1.00000
Sb23   Sb    0.50853   0.76174   0.83367   1.00000
Sb24   Sb    0.49147   0.26174   0.66633   1.00000
loop_
_atom_site_aniso_label
_atom_site_aniso_U_11
_atom_site_aniso_U_22
_atom_site_aniso_U_33
_atom_site_aniso_U_23
_atom_site_aniso_U_13
_atom_site_aniso_U_12
   Ba1    0.00253    0.00276    0.00266    0.00022    0.00023   -0.00002
   Ba2    0.00253    0.00276    0.00266   -0.00022    0.00023    0.00002
   Ba3    0.00253    0.00276    0.00266    0.00022    0.00023   -0.00002
   Ba4    0.00253    0.00276    0.00266   -0.00022    0.00023    0.00002
   Ba5    0.00250    0.00271    0.00266    0.00001   -0.00021   -0.00012
   Ba6    0.00250    0.00271    0.00266   -0.00001   -0.00021    0.00012
   Ba7    0.00250    0.00271    0.00266    0.00001   -0.00021   -0.00012
   Ba8    0.00250    0.00271    0.00266   -0.00001   -0.00021    0.00012
   Ba9    0.00263    0.00301    0.00247    0.00008   -0.00003    0.00031
  Ba10    0.00263    0.00301    0.00247   -0.00008   -0.00003   -0.00031
  Ba11    0.00263    0.00301    0.00247    0.00008   -0.00003    0.00031
  Ba12    0.00263    0.00301    0.00247   -0.00008   -0.00003   -0.00031
  Ba13    0.00313    0.00246    0.00243   -0.00007    0.00008    0.00035
  Ba14    0.00313    0.00246    0.00243    0.00007    0.00008   -0.00035
  Ba15    0.00313    0.00246    0.00243   -0.00007    0.00008    0.00035
  Ba16    0.00313    0.00246    0.00243    0.00007    0.00008   -0.00035
   Sb1    0.00301    0.00285    0.00354    0.00023    0.00025    0.00034
   Sb2    0.00301    0.00285    0.00354   -0.00023    0.00025   -0.00034
   Sb3    0.00301    0.00285    0.00354    0.00023    0.00025    0.00034
   Sb4    0.00301    0.00285    0.00354   -0.00023    0.00025   -0.00034
   Sb5    0.00291    0.00324    0.00287   -0.00028    0.00034   -0.00028
   Sb6    0.00291    0.00324    0.00287    0.00028    0.00034    0.00028
   Sb7    0.00291    0.00324    0.00287   -0.00028    0.00034   -0.00028
   Sb8    0.00291    0.00324    0.00287    0.00028    0.00034    0.00028
   Sb9    0.00340    0.00359    0.00272   -0.00030    0.00049   -0.00089
  Sb10    0.00340    0.00359    0.00272    0.00030    0.00049    0.00089
  Sb11    0.00340    0.00359    0.00272   -0.00030    0.00049   -0.00089
  Sb12    0.00340    0.00359    0.00272    0.00030    0.00049    0.00089
  Sb13    0.00338    0.00325    0.00303   -0.00054   -0.00069    0.00079
  Sb14    0.00338    0.00325    0.00303    0.00054   -0.00069   -0.00079
  Sb15    0.00338    0.00325    0.00303   -0.00054   -0.00069    0.00079
  Sb16    0.00338    0.00325    0.00303    0.00054   -0.00069   -0.00079
  Sb17    0.00285    0.00290    0.00430    0.00018   -0.00024   -0.00036
  Sb18    0.00285    0.00290    0.00430   -0.00018   -0.00024    0.00036
  Sb19    0.00285    0.00290    0.00430    0.00018   -0.00024   -0.00036
  Sb20    0.00285    0.00290    0.00430   -0.00018   -0.00024    0.00036
  Sb21    0.00307    0.00348    0.00310    0.00033   -0.00047   -0.00046
  Sb22    0.00307    0.00348    0.00310   -0.00033   -0.00047    0.00046
  Sb23    0.00307    0.00348    0.00310    0.00033   -0.00047   -0.00046
  Sb24    0.00307    0.00348    0.00310   -0.00033   -0.00047    0.00046
