data_crystal_structure_P1

_symmetry_space_group_name_H-M     'P 1'
_symmetry_Int_Tables_number        1

_cell_length_a                     7.03776
_cell_length_b                     13.78969
_cell_length_c                     15.98963
_cell_angle_alpha                  90.00000
_cell_angle_beta                   90.13601
_cell_angle_gamma                  90.00000
_cell_volume                       1551.76597
_cell_formula_units_Z              1

loop_
_space_group_symop_operation_xyz
x,y,z

loop_
_atom_site_label
_atom_site_type_symbol
_atom_site_fract_x
_atom_site_fract_y
_atom_site_fract_z
_atom_site_occupancy
Ba1    Ba    0.47492   0.48244   0.25290   1.00000
Ba2    Ba    0.52508   0.98244   0.24710   1.00000
Ba3    Ba    0.52508   0.51756   0.74710   1.00000
Ba4    Ba    0.47492   0.01756   0.75290   1.00000
Ba5    Ba    0.97515   0.23156   0.73939   1.00000
Ba6    Ba    0.02485   0.73156   0.76061   1.00000
Ba7    Ba    0.02485   0.76844   0.26061   1.00000
Ba8    Ba    0.97515   0.26844   0.23939   1.00000
Ba9    Ba    0.74299   0.12718   0.49422   1.00000
Ba10   Ba    0.25701   0.62718   0.00578   1.00000
Ba11   Ba    0.25701   0.87282   0.50578   1.00000
Ba12   Ba    0.74299   0.37282   0.99422   1.00000
Ba13   Ba    0.24542   0.37958   0.49746   1.00000
Ba14   Ba    0.75458   0.87958   0.00254   1.00000
Ba15   Ba    0.75458   0.62042   0.50254   1.00000
Ba16   Ba    0.24542   0.12042   0.99746   1.00000
Sb1    Sb    0.74883   0.38062   0.41707   1.00000
Sb2    Sb    0.25117   0.88062   0.08293   1.00000
Sb3    Sb    0.25117   0.61938   0.58293   1.00000
Sb4    Sb    0.74883   0.11938   0.91707   1.00000
Sb5    Sb    0.00281   0.01407   0.17157   1.00000
Sb6    Sb    0.99719   0.51407   0.32843   1.00000
Sb7    Sb    0.99719   0.98593   0.82843   1.00000
Sb8    Sb    0.00281   0.48593   0.67157   1.00000
Sb9    Sb    0.09600   0.45555   0.84830   1.00000
Sb10   Sb    0.90400   0.95555   0.65170   1.00000
Sb11   Sb    0.90400   0.54445   0.15170   1.00000
Sb12   Sb    0.09600   0.04445   0.34830   1.00000
Sb13   Sb    0.39795   0.20569   0.34381   1.00000
Sb14   Sb    0.60205   0.70569   0.15619   1.00000
Sb15   Sb    0.60205   0.79431   0.65619   1.00000
Sb16   Sb    0.39795   0.29431   0.84381   1.00000
Sb17   Sb    0.24845   0.36787   0.06649   1.00000
Sb18   Sb    0.75155   0.86787   0.43351   1.00000
Sb19   Sb    0.75155   0.63213   0.93351   1.00000
Sb20   Sb    0.24845   0.13213   0.56649   1.00000
Sb21   Sb    0.49147   0.23826   0.16633   1.00000
Sb22   Sb    0.50853   0.73826   0.33367   1.00000
Sb23   Sb    0.50853   0.76174   0.83367   1.00000
Sb24   Sb    0.49147   0.26174   0.66633   1.00000
loop_
_atom_site_aniso_label
_atom_site_aniso_U_11
_atom_site_aniso_U_22
_atom_site_aniso_U_33
_atom_site_aniso_U_23
_atom_site_aniso_U_13
_atom_site_aniso_U_12
   Ba1    0.01045    0.01267    0.01098    0.00148    0.00137   -0.00039
   Ba2    0.01045    0.01267    0.01098   -0.00148    0.00137    0.00039
   Ba3    0.01045    0.01267    0.01098    0.00148    0.00137   -0.00039
   Ba4    0.01045    0.01267    0.01098   -0.00148    0.00137    0.00039
   Ba5    0.01018    0.01148    0.01103    0.00005   -0.00140   -0.00102
   Ba6    0.01018    0.01148    0.01103   -0.00005   -0.00140    0.00102
   Ba7    0.01018    0.01148    0.01103    0.00005   -0.00140   -0.00102
   Ba8    0.01018    0.01148    0.01103   -0.00005   -0.00140    0.00102
   Ba9    0.01076    0.01305    0.00919    0.00042   -0.00019    0.00153
  Ba10    0.01076    0.01305    0.00919   -0.00042   -0.00019   -0.00153
  Ba11    0.01076    0.01305    0.00919    0.00042   -0.00019    0.00153
  Ba12    0.01076    0.01305    0.00919   -0.00042   -0.00019   -0.00153
  Ba13    0.01430    0.01050    0.00931   -0.00025    0.00042    0.00206
  Ba14    0.01430    0.01050    0.00931    0.00025    0.00042   -0.00206
  Ba15    0.01430    0.01050    0.00931   -0.00025    0.00042    0.00206
  Ba16    0.01430    0.01050    0.00931    0.00025    0.00042   -0.00206
   Sb1    0.01356    0.01247    0.01710    0.00119    0.00139    0.00351
   Sb2    0.01356    0.01247    0.01710   -0.00119    0.00139   -0.00351
   Sb3    0.01356    0.01247    0.01710    0.00119    0.00139    0.00351
   Sb4    0.01356    0.01247    0.01710   -0.00119    0.00139   -0.00351
   Sb5    0.01309    0.01536    0.01424   -0.00186    0.00302   -0.00338
   Sb6    0.01309    0.01536    0.01424    0.00186    0.00302    0.00338
   Sb7    0.01309    0.01536    0.01424   -0.00186    0.00302   -0.00338
   Sb8    0.01309    0.01536    0.01424    0.00186    0.00302    0.00338
   Sb9    0.01850    0.01965    0.01243   -0.00346    0.00469   -0.00933
  Sb10    0.01850    0.01965    0.01243    0.00346    0.00469    0.00933
  Sb11    0.01850    0.01965    0.01243   -0.00346    0.00469   -0.00933
  Sb12    0.01850    0.01965    0.01243    0.00346    0.00469    0.00933
  Sb13    0.01867    0.01647    0.01627   -0.00572   -0.00758    0.00813
  Sb14    0.01867    0.01647    0.01627    0.00572   -0.00758   -0.00813
  Sb15    0.01867    0.01647    0.01627   -0.00572   -0.00758    0.00813
  Sb16    0.01867    0.01647    0.01627    0.00572   -0.00758   -0.00813
  Sb17    0.01210    0.01289    0.02332    0.00060   -0.00145   -0.00349
  Sb18    0.01210    0.01289    0.02332   -0.00060   -0.00145    0.00349
  Sb19    0.01210    0.01289    0.02332    0.00060   -0.00145   -0.00349
  Sb20    0.01210    0.01289    0.02332   -0.00060   -0.00145    0.00349
  Sb21    0.01517    0.01793    0.01675    0.00345   -0.00528   -0.00553
  Sb22    0.01517    0.01793    0.01675   -0.00345   -0.00528    0.00553
  Sb23    0.01517    0.01793    0.01675    0.00345   -0.00528   -0.00553
  Sb24    0.01517    0.01793    0.01675   -0.00345   -0.00528    0.00553
