data_crystal_structure_P1

_symmetry_space_group_name_H-M     'P 1'
_symmetry_Int_Tables_number        1

_cell_length_a                     5.83879
_cell_length_b                     5.31480
_cell_length_c                     10.84065
_cell_angle_alpha                  90.00000
_cell_angle_beta                   118.72420
_cell_angle_gamma                  90.00000
_cell_volume                       295.00984
_cell_formula_units_Z              1

loop_
_space_group_symop_operation_xyz
x,y,z

loop_
_atom_site_label
_atom_site_type_symbol
_atom_site_fract_x
_atom_site_fract_y
_atom_site_fract_z
_atom_site_occupancy
Li1    Li    0.77257   0.17194   0.44975   1.00000
Li2    Li    0.22743   0.67194   0.05025   1.00000
Li3    Li    0.22743   0.82806   0.55025   1.00000
Li4    Li    0.77257   0.32806   0.94975   1.00000
Li5    Li    0.76223   0.92256   0.17225   1.00000
Li6    Li    0.23777   0.42256   0.32775   1.00000
Li7    Li    0.23777   0.07744   0.82775   1.00000
Li8    Li    0.76223   0.57744   0.67225   1.00000
As1    As    0.71015   0.67240   0.40370   1.00000
As2    As    0.28985   0.17240   0.09630   1.00000
As3    As    0.28985   0.32760   0.59630   1.00000
As4    As    0.71015   0.82760   0.90370   1.00000
As5    As    0.70028   0.43257   0.20266   1.00000
As6    As    0.29972   0.93257   0.29734   1.00000
As7    As    0.29972   0.56743   0.79734   1.00000
As8    As    0.70028   0.06743   0.70266   1.00000
loop_
_atom_site_aniso_label
_atom_site_aniso_U_11
_atom_site_aniso_U_22
_atom_site_aniso_U_33
_atom_site_aniso_U_23
_atom_site_aniso_U_13
_atom_site_aniso_U_12
   Li1    0.05354    0.03127    0.07175   -0.00196    0.01091   -0.00151
   Li2    0.05354    0.03128    0.07175    0.00195    0.01091    0.00152
   Li3    0.05354    0.03127    0.07175   -0.00196    0.01091   -0.00151
   Li4    0.05354    0.03128    0.07175    0.00195    0.01091    0.00152
   Li5    0.06065    0.04018    0.09415   -0.00008    0.03757   -0.00035
   Li6    0.06065    0.04018    0.09415    0.00006    0.03757    0.00036
   Li7    0.06065    0.04018    0.09415   -0.00008    0.03757   -0.00035
   Li8    0.06065    0.04018    0.09415    0.00006    0.03757    0.00036
   As1    0.04024    0.02715    0.04031    0.00176    0.00861   -0.00541
   As2    0.04024    0.02715    0.04031   -0.00178    0.00861    0.00542
   As3    0.04024    0.02715    0.04031    0.00176    0.00861   -0.00541
   As4    0.04024    0.02715    0.04031   -0.00178    0.00861    0.00542
   As5    0.03876    0.03709    0.05897    0.00312    0.02694    0.00203
   As6    0.03876    0.03708    0.05897   -0.00314    0.02694   -0.00203
   As7    0.03876    0.03709    0.05897    0.00312    0.02694    0.00203
   As8    0.03876    0.03708    0.05897   -0.00314    0.02694   -0.00203
