data_crystal_structure_P1

_symmetry_space_group_name_H-M     'P 1'
_symmetry_Int_Tables_number        1

_cell_length_a                     6.04220
_cell_length_b                     6.04220
_cell_length_c                     11.05595
_cell_angle_alpha                  90.00000
_cell_angle_beta                   90.00000
_cell_angle_gamma                  120.00000
_cell_volume                       349.55600
_cell_formula_units_Z              1

loop_
_space_group_symop_operation_xyz
x,y,z

loop_
_atom_site_label
_atom_site_type_symbol
_atom_site_fract_x
_atom_site_fract_y
_atom_site_fract_z
_atom_site_occupancy
K1      K    0.66667   0.33333   0.91806   1.00000
K2      K    0.33333   0.66667   0.41806   1.00000
K3      K    1.00000   0.00000   0.25000   1.00000
K4      K    0.00000   0.00000   0.75000   1.00000
K5      K    0.66667   0.33333   0.58194   1.00000
K6      K    0.33333   0.66667   0.08194   1.00000
Sb1    Sb    0.33333   0.66667   0.75000   1.00000
Sb2    Sb    0.66667   0.33333   0.25000   1.00000
loop_
_atom_site_aniso_label
_atom_site_aniso_U_11
_atom_site_aniso_U_22
_atom_site_aniso_U_33
_atom_site_aniso_U_23
_atom_site_aniso_U_13
_atom_site_aniso_U_12
    K1    0.04493    0.04495    0.02688   -0.00000   -0.00000    0.02247
    K2    0.04493    0.04495    0.02688    0.00000    0.00000    0.02247
    K3    0.02097    0.02099    0.06629   -0.00000   -0.00000    0.01050
    K4    0.02097    0.02099    0.06629   -0.00000   -0.00000    0.01050
    K5    0.04493    0.04495    0.02688    0.00000    0.00000    0.02247
    K6    0.04493    0.04495    0.02688   -0.00000   -0.00000    0.02247
   Sb1    0.01905    0.01906    0.02336   -0.00000   -0.00000    0.00953
   Sb2    0.01905    0.01906    0.02336   -0.00000   -0.00000    0.00953
