data_crystal_structure_P1

_symmetry_space_group_name_H-M     'P 1'
_symmetry_Int_Tables_number        1

_cell_length_a                     6.77064
_cell_length_b                     12.92296
_cell_length_c                     15.59761
_cell_angle_alpha                  90.00000
_cell_angle_beta                   90.03625
_cell_angle_gamma                  90.00000
_cell_volume                       1364.73953
_cell_formula_units_Z              1

loop_
_space_group_symop_operation_xyz
x,y,z

loop_
_atom_site_label
_atom_site_type_symbol
_atom_site_fract_x
_atom_site_fract_y
_atom_site_fract_z
_atom_site_occupancy
Sr1    Sr    0.24876   0.12155   0.99706   1.00000
Sr2    Sr    0.75124   0.62155   0.50294   1.00000
Sr3    Sr    0.75124   0.87845   0.00294   1.00000
Sr4    Sr    0.24876   0.37845   0.49706   1.00000
Sr5    Sr    0.74976   0.12753   0.49647   1.00000
Sr6    Sr    0.25024   0.62753   0.00353   1.00000
Sr7    Sr    0.25024   0.87247   0.50353   1.00000
Sr8    Sr    0.74976   0.37247   0.99647   1.00000
Sr9    Sr    0.99366   0.27804   0.24159   1.00000
Sr10   Sr    0.00634   0.77804   0.25841   1.00000
Sr11   Sr    0.00634   0.72196   0.75841   1.00000
Sr12   Sr    0.99366   0.22196   0.74159   1.00000
Sr13   Sr    0.49254   0.47104   0.25101   1.00000
Sr14   Sr    0.50746   0.97104   0.24899   1.00000
Sr15   Sr    0.50746   0.52896   0.74899   1.00000
Sr16   Sr    0.49254   0.02896   0.75101   1.00000
Sb1    Sb    0.26196   0.36796   0.07146   1.00000
Sb2    Sb    0.73804   0.86796   0.42854   1.00000
Sb3    Sb    0.73804   0.63204   0.92854   1.00000
Sb4    Sb    0.26196   0.13204   0.57146   1.00000
Sb5    Sb    0.53147   0.22029   0.15979   1.00000
Sb6    Sb    0.46853   0.72029   0.34021   1.00000
Sb7    Sb    0.46853   0.77971   0.84021   1.00000
Sb8    Sb    0.53147   0.27971   0.65979   1.00000
Sb9    Sb    0.41999   0.20700   0.34227   1.00000
Sb10   Sb    0.58001   0.70700   0.15773   1.00000
Sb11   Sb    0.58001   0.79300   0.65773   1.00000
Sb12   Sb    0.41999   0.29300   0.84227   1.00000
Sb13   Sb    0.08589   0.04647   0.34864   1.00000
Sb14   Sb    0.91411   0.54647   0.15136   1.00000
Sb15   Sb    0.91411   0.95353   0.65136   1.00000
Sb16   Sb    0.08589   0.45353   0.84864   1.00000
Sb17   Sb    0.96919   0.02832   0.16723   1.00000
Sb18   Sb    0.03081   0.52832   0.33277   1.00000
Sb19   Sb    0.03081   0.97168   0.83277   1.00000
Sb20   Sb    0.96919   0.47168   0.66723   1.00000
Sb21   Sb    0.76209   0.38080   0.41856   1.00000
Sb22   Sb    0.23791   0.88080   0.08144   1.00000
Sb23   Sb    0.23791   0.61920   0.58144   1.00000
Sb24   Sb    0.76209   0.11920   0.91856   1.00000
loop_
_atom_site_aniso_label
_atom_site_aniso_U_11
_atom_site_aniso_U_22
_atom_site_aniso_U_33
_atom_site_aniso_U_23
_atom_site_aniso_U_13
_atom_site_aniso_U_12
   Sr1    0.00375    0.00306    0.00310    0.00001   -0.00014   -0.00059
   Sr2    0.00375    0.00306    0.00310   -0.00001   -0.00014    0.00059
   Sr3    0.00375    0.00306    0.00310    0.00001   -0.00014   -0.00059
   Sr4    0.00375    0.00306    0.00310   -0.00001   -0.00014    0.00059
   Sr5    0.00346    0.00380    0.00314    0.00005    0.00015    0.00068
   Sr6    0.00346    0.00380    0.00314   -0.00005    0.00015   -0.00068
   Sr7    0.00346    0.00380    0.00314    0.00005    0.00015    0.00068
   Sr8    0.00346    0.00380    0.00314   -0.00005    0.00015   -0.00068
   Sr9    0.00313    0.00316    0.00352   -0.00007   -0.00018    0.00011
  Sr10    0.00313    0.00316    0.00352    0.00007   -0.00018   -0.00011
  Sr11    0.00313    0.00316    0.00352   -0.00007   -0.00018    0.00011
  Sr12    0.00313    0.00316    0.00352    0.00007   -0.00018   -0.00011
  Sr13    0.00307    0.00313    0.00347    0.00015    0.00015   -0.00014
  Sr14    0.00307    0.00313    0.00347   -0.00015    0.00015    0.00014
  Sr15    0.00307    0.00313    0.00347    0.00015    0.00015   -0.00014
  Sr16    0.00307    0.00313    0.00347   -0.00015    0.00015    0.00014
   Sb1    0.00280    0.00275    0.00411    0.00001   -0.00011   -0.00020
   Sb2    0.00280    0.00275    0.00411   -0.00001   -0.00011    0.00020
   Sb3    0.00280    0.00275    0.00411    0.00001   -0.00011   -0.00020
   Sb4    0.00280    0.00275    0.00411   -0.00001   -0.00011    0.00020
   Sb5    0.00348    0.00312    0.00322    0.00064   -0.00089   -0.00086
   Sb6    0.00348    0.00312    0.00322   -0.00064   -0.00089    0.00086
   Sb7    0.00348    0.00312    0.00322    0.00064   -0.00089   -0.00086
   Sb8    0.00348    0.00312    0.00322   -0.00064   -0.00089    0.00086
   Sb9    0.00328    0.00294    0.00333   -0.00051   -0.00078    0.00057
  Sb10    0.00328    0.00294    0.00333    0.00051   -0.00078   -0.00057
  Sb11    0.00328    0.00294    0.00333   -0.00051   -0.00078    0.00057
  Sb12    0.00328    0.00294    0.00333    0.00051   -0.00078   -0.00057
  Sb13    0.00329    0.00323    0.00299    0.00041    0.00070    0.00067
  Sb14    0.00329    0.00323    0.00299   -0.00041    0.00070   -0.00067
  Sb15    0.00329    0.00323    0.00299    0.00041    0.00070    0.00067
  Sb16    0.00329    0.00323    0.00299   -0.00041    0.00070   -0.00067
  Sb17    0.00341    0.00299    0.00311   -0.00060    0.00066   -0.00077
  Sb18    0.00341    0.00299    0.00311    0.00060    0.00066    0.00077
  Sb19    0.00341    0.00299    0.00311   -0.00060    0.00066   -0.00077
  Sb20    0.00341    0.00299    0.00311    0.00060    0.00066    0.00077
  Sb21    0.00285    0.00270    0.00384   -0.00002   -0.00003    0.00017
  Sb22    0.00285    0.00270    0.00384    0.00002   -0.00003   -0.00017
  Sb23    0.00285    0.00270    0.00384   -0.00002   -0.00003    0.00017
  Sb24    0.00285    0.00270    0.00384    0.00002   -0.00003   -0.00017
