data_crystal_structure_P1

_symmetry_space_group_name_H-M     'P 1'
_symmetry_Int_Tables_number        1

_cell_length_a                     6.77064
_cell_length_b                     12.92296
_cell_length_c                     15.59761
_cell_angle_alpha                  90.00000
_cell_angle_beta                   90.03625
_cell_angle_gamma                  90.00000
_cell_volume                       1364.73953
_cell_formula_units_Z              1

loop_
_space_group_symop_operation_xyz
x,y,z

loop_
_atom_site_label
_atom_site_type_symbol
_atom_site_fract_x
_atom_site_fract_y
_atom_site_fract_z
_atom_site_occupancy
Sr1    Sr    0.24876   0.12155   0.99706   1.00000
Sr2    Sr    0.75124   0.62155   0.50294   1.00000
Sr3    Sr    0.75124   0.87845   0.00294   1.00000
Sr4    Sr    0.24876   0.37845   0.49706   1.00000
Sr5    Sr    0.74976   0.12753   0.49647   1.00000
Sr6    Sr    0.25024   0.62753   0.00353   1.00000
Sr7    Sr    0.25024   0.87247   0.50353   1.00000
Sr8    Sr    0.74976   0.37247   0.99647   1.00000
Sr9    Sr    0.99366   0.27804   0.24159   1.00000
Sr10   Sr    0.00634   0.77804   0.25841   1.00000
Sr11   Sr    0.00634   0.72196   0.75841   1.00000
Sr12   Sr    0.99366   0.22196   0.74159   1.00000
Sr13   Sr    0.49254   0.47104   0.25101   1.00000
Sr14   Sr    0.50746   0.97104   0.24899   1.00000
Sr15   Sr    0.50746   0.52896   0.74899   1.00000
Sr16   Sr    0.49254   0.02896   0.75101   1.00000
Sb1    Sb    0.26196   0.36796   0.07146   1.00000
Sb2    Sb    0.73804   0.86796   0.42854   1.00000
Sb3    Sb    0.73804   0.63204   0.92854   1.00000
Sb4    Sb    0.26196   0.13204   0.57146   1.00000
Sb5    Sb    0.53147   0.22029   0.15979   1.00000
Sb6    Sb    0.46853   0.72029   0.34021   1.00000
Sb7    Sb    0.46853   0.77971   0.84021   1.00000
Sb8    Sb    0.53147   0.27971   0.65979   1.00000
Sb9    Sb    0.41999   0.20700   0.34227   1.00000
Sb10   Sb    0.58001   0.70700   0.15773   1.00000
Sb11   Sb    0.58001   0.79300   0.65773   1.00000
Sb12   Sb    0.41999   0.29300   0.84227   1.00000
Sb13   Sb    0.08589   0.04647   0.34864   1.00000
Sb14   Sb    0.91411   0.54647   0.15136   1.00000
Sb15   Sb    0.91411   0.95353   0.65136   1.00000
Sb16   Sb    0.08589   0.45353   0.84864   1.00000
Sb17   Sb    0.96919   0.02832   0.16723   1.00000
Sb18   Sb    0.03081   0.52832   0.33277   1.00000
Sb19   Sb    0.03081   0.97168   0.83277   1.00000
Sb20   Sb    0.96919   0.47168   0.66723   1.00000
Sb21   Sb    0.76209   0.38080   0.41856   1.00000
Sb22   Sb    0.23791   0.88080   0.08144   1.00000
Sb23   Sb    0.23791   0.61920   0.58144   1.00000
Sb24   Sb    0.76209   0.11920   0.91856   1.00000
loop_
_atom_site_aniso_label
_atom_site_aniso_U_11
_atom_site_aniso_U_22
_atom_site_aniso_U_33
_atom_site_aniso_U_23
_atom_site_aniso_U_13
_atom_site_aniso_U_12
   Sr1    0.04463    0.03635    0.04592   -0.00079   -0.00350   -0.00722
   Sr2    0.04463    0.03635    0.04592    0.00079   -0.00350    0.00722
   Sr3    0.04463    0.03635    0.04592   -0.00079   -0.00350   -0.00722
   Sr4    0.04463    0.03635    0.04592    0.00079   -0.00350    0.00722
   Sr5    0.03882    0.04994    0.04530    0.00038    0.00140    0.00936
   Sr6    0.03882    0.04994    0.04530   -0.00038    0.00140   -0.00936
   Sr7    0.03882    0.04994    0.04530    0.00038    0.00140    0.00936
   Sr8    0.03882    0.04994    0.04530   -0.00038    0.00140   -0.00936
   Sr9    0.03582    0.03772    0.06093   -0.00083   -0.00737    0.00578
  Sr10    0.03582    0.03772    0.06093    0.00083   -0.00737   -0.00578
  Sr11    0.03582    0.03772    0.06093   -0.00083   -0.00737    0.00578
  Sr12    0.03582    0.03772    0.06093    0.00083   -0.00737   -0.00578
  Sr13    0.03377    0.03383    0.05889    0.00344    0.00198   -0.00519
  Sr14    0.03377    0.03383    0.05889   -0.00344    0.00198    0.00519
  Sr15    0.03377    0.03383    0.05889    0.00344    0.00198   -0.00519
  Sr16    0.03377    0.03383    0.05889   -0.00344    0.00198    0.00519
   Sb1    0.03537    0.03686    0.09368   -0.00389   -0.00243   -0.00650
   Sb2    0.03537    0.03686    0.09368    0.00389   -0.00243    0.00650
   Sb3    0.03537    0.03686    0.09368   -0.00389   -0.00243   -0.00650
   Sb4    0.03537    0.03686    0.09368    0.00389   -0.00243    0.00650
   Sb5    0.07575    0.05391    0.08395    0.02858   -0.04305   -0.03865
   Sb6    0.07575    0.05391    0.08395   -0.02858   -0.04305    0.03865
   Sb7    0.07575    0.05391    0.08395    0.02858   -0.04305   -0.03865
   Sb8    0.07575    0.05391    0.08395   -0.02858   -0.04305    0.03865
   Sb9    0.06223    0.04275    0.08876   -0.02310   -0.03932    0.02392
  Sb10    0.06223    0.04275    0.08876    0.02310   -0.03932   -0.02392
  Sb11    0.06223    0.04275    0.08876   -0.02310   -0.03932    0.02392
  Sb12    0.06223    0.04275    0.08876    0.02310   -0.03932   -0.02392
  Sb13    0.06231    0.05257    0.07130    0.01934    0.03046    0.02598
  Sb14    0.06231    0.05257    0.07130   -0.01934    0.03046   -0.02598
  Sb15    0.06231    0.05257    0.07130    0.01934    0.03046    0.02598
  Sb16    0.06231    0.05257    0.07130   -0.01934    0.03046   -0.02598
  Sb17    0.07156    0.05431    0.07612   -0.02379    0.02923   -0.03703
  Sb18    0.07156    0.05431    0.07612    0.02379    0.02923    0.03703
  Sb19    0.07156    0.05431    0.07612   -0.02379    0.02923   -0.03703
  Sb20    0.07156    0.05431    0.07612    0.02379    0.02923    0.03703
  Sb21    0.03667    0.03683    0.09243   -0.00580   -0.00769    0.00667
  Sb22    0.03667    0.03683    0.09243    0.00580   -0.00769   -0.00667
  Sb23    0.03667    0.03683    0.09243   -0.00580   -0.00769    0.00667
  Sb24    0.03667    0.03683    0.09243    0.00580   -0.00769   -0.00667
