data_crystal_structure_P1

_symmetry_space_group_name_H-M     'P 1'
_symmetry_Int_Tables_number        1

_cell_length_a                     5.50855
_cell_length_b                     5.50855
_cell_length_c                     6.56844
_cell_angle_alpha                  90.00000
_cell_angle_beta                   90.00000
_cell_angle_gamma                  120.00000
_cell_volume                       172.61045
_cell_formula_units_Z              1

loop_
_space_group_symop_operation_xyz
x,y,z

loop_
_atom_site_label
_atom_site_type_symbol
_atom_site_fract_x
_atom_site_fract_y
_atom_site_fract_z
_atom_site_occupancy
Sr1    Sr    0.66667   0.33333   0.25000   1.00000
Sr2    Sr    0.33333   0.66667   0.75000   1.00000
Ag1    Ag    1.00000   1.00000   0.50000   1.00000
Ag2    Ag    1.00000   1.00000   1.00000   1.00000
Sb1    Sb    0.33333   0.66667   0.25000   1.00000
Sb2    Sb    0.66667   0.33333   0.75000   1.00000
loop_
_atom_site_aniso_label
_atom_site_aniso_U_11
_atom_site_aniso_U_22
_atom_site_aniso_U_33
_atom_site_aniso_U_23
_atom_site_aniso_U_13
_atom_site_aniso_U_12
   Sr1 33841.72807 33722.03412 1475.42019   -0.00231   -0.00062 16860.94530
   Sr2 33841.72807 33722.03412 1475.42019   -0.00231   -0.00062 16860.94530
   Ag1 33840.80670 33721.11609 1475.14942   -0.08882   -0.04388 16860.48629
   Ag2 33840.80670 33721.11609 1475.14942    0.08420    0.04263 16860.48629
   Sb1 33842.19093 33722.49537 1475.48970   -0.00231   -0.00062 16861.17592
   Sb2 33842.19093 33722.49537 1475.48970   -0.00231   -0.00062 16861.17592
