data_crystal_structure_P1

_symmetry_space_group_name_H-M     'P 1'
_symmetry_Int_Tables_number        1

_cell_length_a                     5.32378
_cell_length_b                     5.32378
_cell_length_c                     5.32379
_cell_angle_alpha                  109.47129
_cell_angle_beta                   109.47129
_cell_angle_gamma                  109.47115
_cell_volume                       116.15522
_cell_formula_units_Z              1

loop_
_space_group_symop_operation_xyz
x,y,z

loop_
_atom_site_label
_atom_site_type_symbol
_atom_site_fract_x
_atom_site_fract_y
_atom_site_fract_z
_atom_site_occupancy
Ag1    Ag    0.00000   0.00000   0.99403   1.00000
Te1    Te    0.50000   0.00000   0.49402   1.00000
Te2    Te    0.50000   0.50000   0.99402   1.00000
Te3    Te    0.00000   0.50000   0.49402   1.00000
loop_
_atom_site_aniso_label
_atom_site_aniso_U_11
_atom_site_aniso_U_22
_atom_site_aniso_U_33
_atom_site_aniso_U_23
_atom_site_aniso_U_13
_atom_site_aniso_U_12
   Ag1    0.02750    0.02737    0.02776    0.01392    0.01366    0.01379
   Te1    0.03526    0.02060    0.03529    0.01061    0.02473    0.01039
   Te2    0.03516    0.03511    0.02074    0.01060    0.01015    0.02488
   Te3    0.02073    0.03501    0.03523    0.02509    0.01020    0.01043
