data_crystal_structure_P1

_symmetry_space_group_name_H-M     'P 1'
_symmetry_Int_Tables_number        1

_cell_length_a                     5.32378
_cell_length_b                     5.32378
_cell_length_c                     5.32379
_cell_angle_alpha                  109.47129
_cell_angle_beta                   109.47129
_cell_angle_gamma                  109.47115
_cell_volume                       116.15522
_cell_formula_units_Z              1

loop_
_space_group_symop_operation_xyz
x,y,z

loop_
_atom_site_label
_atom_site_type_symbol
_atom_site_fract_x
_atom_site_fract_y
_atom_site_fract_z
_atom_site_occupancy
Ag1    Ag    0.00000   0.00000   0.99403   1.00000
Te1    Te    0.50000   0.00000   0.49402   1.00000
Te2    Te    0.50000   0.50000   0.99402   1.00000
Te3    Te    0.00000   0.50000   0.49402   1.00000
loop_
_atom_site_aniso_label
_atom_site_aniso_U_11
_atom_site_aniso_U_22
_atom_site_aniso_U_33
_atom_site_aniso_U_23
_atom_site_aniso_U_13
_atom_site_aniso_U_12
   Ag1    0.01835    0.01847    0.01871    0.00924    0.00938    0.00924
   Te1    0.02343    0.01394    0.02376    0.00697    0.01688    0.00697
   Te2    0.02353    0.02362    0.01408    0.00696    0.00722    0.01667
   Te3    0.01381    0.02362    0.02377    0.01666    0.00721    0.00695
