data_crystal_structure_P1

_symmetry_space_group_name_H-M     'P 1'
_symmetry_Int_Tables_number        1

_cell_length_a                     7.83096
_cell_length_b                     7.83096
_cell_length_c                     7.83096
_cell_angle_alpha                  33.48858
_cell_angle_beta                   33.48858
_cell_angle_gamma                  33.48858
_cell_volume                       130.21386
_cell_formula_units_Z              1

loop_
_space_group_symop_operation_xyz
x,y,z

loop_
_atom_site_label
_atom_site_type_symbol
_atom_site_fract_x
_atom_site_fract_y
_atom_site_fract_z
_atom_site_occupancy
Te1    Te    0.50000   0.50000   0.50000   1.00000
Pb1    Pb    0.74473   0.74473   0.74473   1.00000
Pb2    Pb    0.25527   0.25527   0.25527   1.00000
Se1    Se    0.00000   1.00000   0.00000   1.00000
loop_
_atom_site_aniso_label
_atom_site_aniso_U_11
_atom_site_aniso_U_22
_atom_site_aniso_U_33
_atom_site_aniso_U_23
_atom_site_aniso_U_13
_atom_site_aniso_U_12
   Te1    0.00203    0.00204    0.00204   -0.00093   -0.00093   -0.00093
   Pb1    0.00206    0.00207    0.00207   -0.00094   -0.00094   -0.00094
   Pb2    0.00206    0.00207    0.00207   -0.00094   -0.00094   -0.00094
   Se1    0.00348    0.00350    0.00350   -0.00161   -0.00160   -0.00160
