data_crystal_structure_P1

_symmetry_space_group_name_H-M     'P 1'
_symmetry_Int_Tables_number        1

_cell_length_a                     8.93684
_cell_length_b                     8.93684
_cell_length_c                     16.15752
_cell_angle_alpha                  90.00000
_cell_angle_beta                   90.00000
_cell_angle_gamma                  90.00000
_cell_volume                       1290.45383
_cell_formula_units_Z              1

loop_
_space_group_symop_operation_xyz
x,y,z

loop_
_atom_site_label
_atom_site_type_symbol
_atom_site_fract_x
_atom_site_fract_y
_atom_site_fract_z
_atom_site_occupancy
Tl1    Tl    0.98633   0.80390   0.80684   1.00000
Tl2    Tl    0.87788   0.67095   0.37655   1.00000
Tl3    Tl    0.19610   0.98633   0.05684   1.00000
Tl4    Tl    0.18821   0.38309   0.57150   1.00000
Tl5    Tl    0.67095   0.12212   0.12655   1.00000
Tl6    Tl    0.38309   0.81179   0.32150   1.00000
Tl7    Tl    0.12212   0.32905   0.87655   1.00000
Tl8    Tl    0.01367   0.19610   0.30684   1.00000
Tl9    Tl    0.61691   0.18821   0.82150   1.00000
Tl10   Tl    0.81179   0.61691   0.07150   1.00000
Tl11   Tl    0.32905   0.87788   0.62655   1.00000
Tl12   Tl    0.80390   0.01367   0.55684   1.00000
Pb1    Pb    0.72077   0.49036   0.63161   1.00000
Pb2    Pb    0.50964   0.72077   0.88161   1.00000
Pb3    Pb    0.49036   0.27923   0.38161   1.00000
Pb4    Pb    0.27923   0.50964   0.13161   1.00000
Br1    Br    0.34789   0.53098   0.76153   1.00000
Br2    Br    0.48508   0.78582   0.10955   1.00000
Br3    Br    0.21418   0.48508   0.35955   1.00000
Br4    Br    0.68893   0.01011   0.35034   1.00000
Br5    Br    0.64704   0.83750   0.72746   1.00000
Br6    Br    0.51492   0.21418   0.60955   1.00000
Br7    Br    0.65211   0.46902   0.26153   1.00000
Br8    Br    0.46902   0.34789   0.01153   1.00000
Br9    Br    0.01011   0.31107   0.10034   1.00000
Br10   Br    0.94975   0.22162   0.70161   1.00000
Br11   Br    0.78582   0.51492   0.85955   1.00000
Br12   Br    0.77838   0.94975   0.95161   1.00000
Br13   Br    0.22162   0.05025   0.45161   1.00000
Br14   Br    0.16250   0.64704   0.97746   1.00000
Br15   Br    0.31107   0.98989   0.85034   1.00000
Br16   Br    0.83750   0.35296   0.47746   1.00000
Br17   Br    0.98989   0.68893   0.60034   1.00000
Br18   Br    0.53098   0.65211   0.51153   1.00000
Br19   Br    0.35296   0.16250   0.22746   1.00000
Br20   Br    0.05025   0.77838   0.20161   1.00000
loop_
_atom_site_aniso_label
_atom_site_aniso_U_11
_atom_site_aniso_U_22
_atom_site_aniso_U_33
_atom_site_aniso_U_23
_atom_site_aniso_U_13
_atom_site_aniso_U_12
   Tl1    0.05181    0.10559    0.05543   -0.01520    0.00078   -0.02666
   Tl2    0.08821    0.05053    0.07909    0.00603    0.00691    0.00287
   Tl3    0.10559    0.05181    0.05543    0.00078    0.01520    0.02666
   Tl4    0.06797    0.08241    0.08061    0.00053    0.00439    0.03222
   Tl5    0.05053    0.08821    0.07909   -0.00691    0.00603   -0.00287
   Tl6    0.08241    0.06797    0.08061   -0.00439    0.00053   -0.03222
   Tl7    0.08821    0.05053    0.07909   -0.00603   -0.00691    0.00287
   Tl8    0.05181    0.10559    0.05543    0.01520   -0.00078   -0.02666
   Tl9    0.08241    0.06797    0.08061    0.00439   -0.00053   -0.03222
  Tl10    0.06797    0.08241    0.08061   -0.00053   -0.00439    0.03222
  Tl11    0.05053    0.08821    0.07909    0.00691   -0.00603   -0.00287
  Tl12    0.10559    0.05181    0.05543   -0.00078   -0.01520    0.02666
   Pb1    0.05446    0.04844    0.04052    0.00222   -0.00748   -0.01048
   Pb2    0.04844    0.05446    0.04052   -0.00748   -0.00222    0.01048
   Pb3    0.04844    0.05446    0.04052    0.00748    0.00222    0.01048
   Pb4    0.05446    0.04844    0.04052   -0.00222    0.00748   -0.01048
   Br1    0.10435    0.09085    0.05058   -0.01818   -0.00563   -0.04250
   Br2    0.03921    0.04317    0.10780   -0.00184    0.00925   -0.00203
   Br3    0.04317    0.03921    0.10780    0.00925    0.00184    0.00203
   Br4    0.03914    0.03922    0.07522   -0.00295   -0.00696   -0.00104
   Br5    0.03960    0.06240    0.03887    0.00465    0.00128   -0.00011
   Br6    0.03921    0.04317    0.10780    0.00184   -0.00925   -0.00203
   Br7    0.10435    0.09085    0.05058    0.01818    0.00563   -0.04250
   Br8    0.09085    0.10435    0.05058   -0.00563    0.01818    0.04250
   Br9    0.03922    0.03914    0.07522    0.00696   -0.00295    0.00104
  Br10    0.05639    0.10439    0.04671   -0.01351   -0.00648   -0.00713
  Br11    0.04317    0.03921    0.10780   -0.00925   -0.00184    0.00203
  Br12    0.10439    0.05639    0.04671   -0.00648    0.01351    0.00713
  Br13    0.10439    0.05639    0.04671    0.00648   -0.01351    0.00713
  Br14    0.06240    0.03960    0.03887    0.00128   -0.00465    0.00011
  Br15    0.03914    0.03922    0.07522    0.00295    0.00696   -0.00104
  Br16    0.06240    0.03960    0.03887   -0.00128    0.00465    0.00011
  Br17    0.03922    0.03914    0.07522   -0.00696    0.00295    0.00104
  Br18    0.09085    0.10435    0.05058    0.00563   -0.01818    0.04250
  Br19    0.03960    0.06240    0.03887   -0.00465   -0.00128   -0.00011
  Br20    0.05639    0.10439    0.04671    0.01351    0.00648   -0.00713
