data_crystal_structure_P1

_symmetry_space_group_name_H-M     'P 1'
_symmetry_Int_Tables_number        1

_cell_length_a                     8.93684
_cell_length_b                     8.93684
_cell_length_c                     16.15752
_cell_angle_alpha                  90.00000
_cell_angle_beta                   90.00000
_cell_angle_gamma                  90.00000
_cell_volume                       1290.45383
_cell_formula_units_Z              1

loop_
_space_group_symop_operation_xyz
x,y,z

loop_
_atom_site_label
_atom_site_type_symbol
_atom_site_fract_x
_atom_site_fract_y
_atom_site_fract_z
_atom_site_occupancy
Tl1    Tl    0.98633   0.80390   0.80684   1.00000
Tl2    Tl    0.87788   0.67095   0.37655   1.00000
Tl3    Tl    0.19610   0.98633   0.05684   1.00000
Tl4    Tl    0.18821   0.38309   0.57150   1.00000
Tl5    Tl    0.67095   0.12212   0.12655   1.00000
Tl6    Tl    0.38309   0.81179   0.32150   1.00000
Tl7    Tl    0.12212   0.32905   0.87655   1.00000
Tl8    Tl    0.01367   0.19610   0.30684   1.00000
Tl9    Tl    0.61691   0.18821   0.82150   1.00000
Tl10   Tl    0.81179   0.61691   0.07150   1.00000
Tl11   Tl    0.32905   0.87788   0.62655   1.00000
Tl12   Tl    0.80390   0.01367   0.55684   1.00000
Pb1    Pb    0.72077   0.49036   0.63161   1.00000
Pb2    Pb    0.50964   0.72077   0.88161   1.00000
Pb3    Pb    0.49036   0.27923   0.38161   1.00000
Pb4    Pb    0.27923   0.50964   0.13161   1.00000
Br1    Br    0.34789   0.53098   0.76153   1.00000
Br2    Br    0.48508   0.78582   0.10955   1.00000
Br3    Br    0.21418   0.48508   0.35955   1.00000
Br4    Br    0.68893   0.01011   0.35034   1.00000
Br5    Br    0.64704   0.83750   0.72746   1.00000
Br6    Br    0.51492   0.21418   0.60955   1.00000
Br7    Br    0.65211   0.46902   0.26153   1.00000
Br8    Br    0.46902   0.34789   0.01153   1.00000
Br9    Br    0.01011   0.31107   0.10034   1.00000
Br10   Br    0.94975   0.22162   0.70161   1.00000
Br11   Br    0.78582   0.51492   0.85955   1.00000
Br12   Br    0.77838   0.94975   0.95161   1.00000
Br13   Br    0.22162   0.05025   0.45161   1.00000
Br14   Br    0.16250   0.64704   0.97746   1.00000
Br15   Br    0.31107   0.98989   0.85034   1.00000
Br16   Br    0.83750   0.35296   0.47746   1.00000
Br17   Br    0.98989   0.68893   0.60034   1.00000
Br18   Br    0.53098   0.65211   0.51153   1.00000
Br19   Br    0.35296   0.16250   0.22746   1.00000
Br20   Br    0.05025   0.77838   0.20161   1.00000
loop_
_atom_site_aniso_label
_atom_site_aniso_U_11
_atom_site_aniso_U_22
_atom_site_aniso_U_33
_atom_site_aniso_U_23
_atom_site_aniso_U_13
_atom_site_aniso_U_12
   Tl1    0.06905    0.14075    0.07387   -0.02027    0.00104   -0.03555
   Tl2    0.11758    0.06733    0.10541    0.00804    0.00922    0.00383
   Tl3    0.14075    0.06905    0.07387    0.00104    0.02027    0.03555
   Tl4    0.09059    0.10985    0.10744    0.00070    0.00585    0.04296
   Tl5    0.06733    0.11758    0.10541   -0.00922    0.00804   -0.00383
   Tl6    0.10985    0.09059    0.10744   -0.00585    0.00070   -0.04296
   Tl7    0.11758    0.06733    0.10541   -0.00804   -0.00922    0.00383
   Tl8    0.06905    0.14075    0.07387    0.02027   -0.00104   -0.03555
   Tl9    0.10985    0.09059    0.10744    0.00585   -0.00070   -0.04296
  Tl10    0.09059    0.10985    0.10744   -0.00070   -0.00585    0.04296
  Tl11    0.06733    0.11758    0.10541    0.00922   -0.00804   -0.00383
  Tl12    0.14075    0.06905    0.07387   -0.00104   -0.02027    0.03555
   Pb1    0.07257    0.06455    0.05399    0.00296   -0.00997   -0.01397
   Pb2    0.06455    0.07257    0.05399   -0.00997   -0.00296    0.01397
   Pb3    0.06455    0.07257    0.05399    0.00997    0.00296    0.01397
   Pb4    0.07257    0.06455    0.05399   -0.00296    0.00997   -0.01397
   Br1    0.13904    0.12104    0.06734   -0.02424   -0.00751   -0.05666
   Br2    0.05218    0.05746    0.14363   -0.00245    0.01233   -0.00270
   Br3    0.05746    0.05218    0.14363    0.01233    0.00245    0.00270
   Br4    0.05210    0.05220    0.10019   -0.00393   -0.00928   -0.00138
   Br5    0.05271    0.08310    0.05172    0.00620    0.00171   -0.00015
   Br6    0.05218    0.05746    0.14363    0.00245   -0.01233   -0.00270
   Br7    0.13904    0.12104    0.06734    0.02424    0.00751   -0.05666
   Br8    0.12104    0.13904    0.06734   -0.00751    0.02424    0.05666
   Br9    0.05220    0.05210    0.10019    0.00928   -0.00393    0.00138
  Br10    0.07509    0.13908    0.06218   -0.01801   -0.00864   -0.00951
  Br11    0.05746    0.05218    0.14363   -0.01233   -0.00245    0.00270
  Br12    0.13908    0.07509    0.06218   -0.00864    0.01801    0.00951
  Br13    0.13908    0.07509    0.06218    0.00864   -0.01801    0.00951
  Br14    0.08310    0.05271    0.05172    0.00171   -0.00620    0.00015
  Br15    0.05210    0.05220    0.10019    0.00393    0.00928   -0.00138
  Br16    0.08310    0.05271    0.05172   -0.00171    0.00620    0.00015
  Br17    0.05220    0.05210    0.10019   -0.00928    0.00393    0.00138
  Br18    0.12104    0.13904    0.06734    0.00751   -0.02424    0.05666
  Br19    0.05271    0.08310    0.05172   -0.00620   -0.00171   -0.00015
  Br20    0.07509    0.13908    0.06218    0.01801    0.00864   -0.00951
