data_crystal_structure_P1

_symmetry_space_group_name_H-M     'P 1'
_symmetry_Int_Tables_number        1

_cell_length_a                     4.24798
_cell_length_b                     4.24797
_cell_length_c                     4.24798
_cell_angle_alpha                  60.00005
_cell_angle_beta                   60.00009
_cell_angle_gamma                  60.00005
_cell_volume                       54.20395
_cell_formula_units_Z              1

loop_
_space_group_symop_operation_xyz
x,y,z

loop_
_atom_site_label
_atom_site_type_symbol
_atom_site_fract_x
_atom_site_fract_y
_atom_site_fract_z
_atom_site_occupancy
Pb1    Pb    0.00000   1.00000   0.50000   1.00000
S1      S    0.50000   0.50000   1.00000   1.00000
loop_
_atom_site_aniso_label
_atom_site_aniso_U_11
_atom_site_aniso_U_22
_atom_site_aniso_U_33
_atom_site_aniso_U_23
_atom_site_aniso_U_13
_atom_site_aniso_U_12
   Pb1    0.02633    0.02628    0.02633   -0.00875   -0.00884   -0.00875
    S1    0.02306    0.02304    0.02306   -0.00766   -0.00775   -0.00766
