data_crystal_structure_P1

_symmetry_space_group_name_H-M     'P 1'
_symmetry_Int_Tables_number        1

_cell_length_a                     12.45093
_cell_length_b                     12.45093
_cell_length_c                     12.45093
_cell_angle_alpha                  124.78745
_cell_angle_beta                   124.78745
_cell_angle_gamma                  81.89039
_cell_volume                       1252.28940
_cell_formula_units_Z              1

loop_
_space_group_symop_operation_xyz
x,y,z

loop_
_atom_site_label
_atom_site_type_symbol
_atom_site_fract_x
_atom_site_fract_y
_atom_site_fract_z
_atom_site_occupancy
K1      K    0.25964   0.87500   0.88464   1.00000
K2      K    0.62500   0.24036   0.11536   1.00000
K3      K    0.12500   0.50964   0.88464   1.00000
K4      K    0.99036   0.37500   0.11536   1.00000
K5      K    0.49036   0.37500   0.61536   1.00000
K6      K    0.12500   0.00964   0.38464   1.00000
K7      K    0.62500   0.74036   0.61536   1.00000
K8      K    0.75964   0.87500   0.38464   1.00000
K9      K    0.37339   0.37339   0.24677   1.00000
K10     K    0.12339   0.37661   0.50000   1.00000
K11     K    0.87661   0.62339   0.50000   1.00000
K12     K    0.12661   0.12661   0.75323   1.00000
K13     K    0.37661   0.87661   0.25323   1.00000
K14     K    0.62661   0.87339   0.00000   1.00000
K15     K    0.87339   0.62661   1.00000   1.00000
K16     K    0.62339   0.12339   0.74677   1.00000
Sn1    Sn    0.50673   0.55734   0.17719   1.00000
Sn2    Sn    0.30734   0.63015   0.55061   1.00000
Sn3    Sn    0.07954   0.75673   0.44939   1.00000
Sn4    Sn    0.74327   0.42046   0.55061   1.00000
Sn5    Sn    0.86985   0.19266   0.44939   1.00000
Sn6    Sn    0.17046   0.11985   0.17719   1.00000
Sn7    Sn    0.94266   0.99327   0.82281   1.00000
Sn8    Sn    0.38015   0.32954   0.82281   1.00000
Sn9    Sn    0.24327   0.69266   0.32281   1.00000
Sn10   Sn    0.44266   0.61985   0.94939   1.00000
Sn11   Sn    0.67046   0.49327   0.05061   1.00000
Sn12   Sn    0.00673   0.82954   0.94939   1.00000
Sn13   Sn    0.88015   0.05734   0.05061   1.00000
Sn14   Sn    0.57954   0.13015   0.32281   1.00000
Sn15   Sn    0.80734   0.25673   0.67719   1.00000
Sn16   Sn    0.36985   0.92046   0.67719   1.00000
loop_
_atom_site_aniso_label
_atom_site_aniso_U_11
_atom_site_aniso_U_22
_atom_site_aniso_U_33
_atom_site_aniso_U_23
_atom_site_aniso_U_13
_atom_site_aniso_U_12
    K1    0.01530    0.02274    0.01722    0.01346    0.01016    0.00651
    K2    0.02274    0.01530    0.01722    0.01016    0.01346    0.00651
    K3    0.01581    0.01530    0.01722    0.00729    0.01059    0.00305
    K4    0.01530    0.01581    0.01722    0.01059    0.00729    0.00305
    K5    0.01530    0.02274    0.01722    0.01346    0.01016    0.00651
    K6    0.02274    0.01530    0.01722    0.01016    0.01346    0.00651
    K7    0.01581    0.01530    0.01722    0.00729    0.01059    0.00305
    K8    0.01530    0.01581    0.01722    0.01059    0.00729    0.00305
    K9    0.01683    0.01826    0.01955    0.01178    0.01178    0.00542
   K10    0.01826    0.01826    0.01669    0.01066    0.01066    0.00406
   K11    0.01683    0.01683    0.01669    0.00947    0.00947    0.00262
   K12    0.01826    0.01683    0.01955    0.01178    0.01178    0.00542
   K13    0.01683    0.01826    0.01955    0.01178    0.01178    0.00542
   K14    0.01826    0.01826    0.01669    0.01066    0.01066    0.00406
   K15    0.01683    0.01683    0.01669    0.00947    0.00947    0.00262
   K16    0.01826    0.01683    0.01955    0.01178    0.01178    0.00542
   Sn1    0.01616    0.01590    0.01313    0.00958    0.01018    0.00517
   Sn2    0.01590    0.01188    0.01495    0.00950    0.00890    0.00435
   Sn3    0.01070    0.01616    0.01495    0.00912    0.00852    0.00389
   Sn4    0.01616    0.01070    0.01495    0.00852    0.00912    0.00389
   Sn5    0.01188    0.01590    0.01495    0.00890    0.00950    0.00435
   Sn6    0.01070    0.01188    0.01313    0.00625    0.00565    0.00043
   Sn7    0.01590    0.01616    0.01313    0.01018    0.00958    0.00517
   Sn8    0.01188    0.01070    0.01313    0.00565    0.00625    0.00043
   Sn9    0.01616    0.01590    0.01313    0.00958    0.01018    0.00517
  Sn10    0.01590    0.01188    0.01495    0.00950    0.00890    0.00435
  Sn11    0.01070    0.01616    0.01495    0.00912    0.00852    0.00389
  Sn12    0.01616    0.01070    0.01495    0.00852    0.00912    0.00389
  Sn13    0.01188    0.01590    0.01495    0.00890    0.00950    0.00435
  Sn14    0.01070    0.01188    0.01313    0.00625    0.00565    0.00043
  Sn15    0.01590    0.01616    0.01313    0.01018    0.00958    0.00517
  Sn16    0.01188    0.01070    0.01313    0.00565    0.00625    0.00043
