data_crystal_structure_P1

_symmetry_space_group_name_H-M     'P 1'
_symmetry_Int_Tables_number        1

_cell_length_a                     7.32361
_cell_length_b                     7.32361
_cell_length_c                     7.32361
_cell_angle_alpha                  34.92874
_cell_angle_beta                   34.92874
_cell_angle_gamma                  34.92874
_cell_volume                       114.96192
_cell_formula_units_Z              1

loop_
_space_group_symop_operation_xyz
x,y,z

loop_
_atom_site_label
_atom_site_type_symbol
_atom_site_fract_x
_atom_site_fract_y
_atom_site_fract_z
_atom_site_occupancy
Ag1    Ag    0.50000   0.50000   0.50000   1.00000
Sb1    Sb    1.00000   0.00000   1.00000   1.00000
Te1    Te    0.24588   0.24588   0.24588   1.00000
Te2    Te    0.75412   0.75412   0.75412   1.00000
loop_
_atom_site_aniso_label
_atom_site_aniso_U_11
_atom_site_aniso_U_22
_atom_site_aniso_U_33
_atom_site_aniso_U_23
_atom_site_aniso_U_13
_atom_site_aniso_U_12
   Ag1    0.04114    0.04094    0.04033   -0.01818   -0.01815   -0.01866
   Sb1    0.03061    0.03000    0.02975   -0.01353   -0.01362   -0.01365
   Te1    0.06027    0.06885    0.05887   -0.03149   -0.02351   -0.03380
   Te2    0.06027    0.06885    0.05887   -0.03149   -0.02351   -0.03380
